ipss.test.plugin.core/testData/adpter/ge/UCTE_2002_Summer.EPC
title
03/11/02JOFORPT200.02000SPORTUG100.0CASE
!
comments
!
solution parameters
tap    1    tcul  enabled/disabled
phas   1    ps    enabled/disabled
area   1    area  enabled/disabled
svd    1    svd   enabled/disabled
dctap  1    dc    enabled/disabled
ped    1    ped   enabled/disabled
jump  0.000100    jumper threshold
toler   0.1000    newton tolerance
sbase    100.0    system mva base
!
bus data  [ 1254]             ty  vsched   volt     angle   ar zone  vmax   vmin   date_in date_out pid L own
       1 "P-1     " 380.00  :  0 1.04000 1.040000  -5.00000   1  201 4.0000 0.4000   400101   391231   0 0   1
       2 "P-2     " 380.00  :  1 1.000000 1.000000  -5.00000   1  201 4.0000 0.4000   400101   391231   0 0   1
       3 "P-3     " 380.00  :  1 1.000000 1.000000  -5.00000   1  201 4.0000 0.4000   400101   391231   0 0   1
       4 "P-4     " 380.00  :  2 1.04000 1.040000  -5.00000   1  201 4.0000 0.4000   400101   391231   0 0   1
       5 "P-5     " 380.00  :  2 1.04000 1.040000  -5.00000   1  201 4.0000 0.4000   400101   391231   0 0   1
       6 "P-6     " 380.00  :  1 1.000000 1.000000  -5.00000   1  201 4.0000 0.4000   400101   391231   0 0   1
       7 "P-7     " 380.00  :  2 1.04000 1.040000  -5.00000   1  201 4.0000 0.4000   400101   391231   0 0   1
       8 "P-9     " 380.00  :  2 1.04000 1.040000  -5.00000   1  201 4.0000 0.4000   400101   391231   0 0   1
       9 "P-10    " 380.00  :  1 1.000000 1.000000  -5.00000   1  201 4.0000 0.4000   400101   391231   0 0   1
      10 "P-11    " 380.00  :  1 1.000000 1.000000  -5.00000   1  201 4.0000 0.4000   400101   391231   0 0   1
      11 "P-12    " 380.00  :  1 1.000000 1.000000  -5.00000   1  201 4.0000 0.4000   400101   391231   0 0   1
      12 "P-13    " 380.00  :  1 1.000000 1.000000  -5.00000   1  201 4.0000 0.4000   400101   391231   0 0   1
      13 "P-14    " 380.00  :  1 1.000000 1.000000  -5.00000   1  201 4.0000 0.4000   400101   391231   0 0   1
      14 "P-15    " 380.00  :  2 1.04000 1.040000  -5.00000   1  201 4.0000 0.4000   400101   391231   0 0   1
      15 "P-16    " 380.00  :  1 1.000000 1.000000  -5.00000   1  201 4.0000 0.4000   400101   391231   0 0   1
      16 "P-17    " 380.00  :  1 1.000000 1.000000  -5.00000   1  201 4.0000 0.4000   400101   391231   0 0   1
      17 "P-18    " 380.00  :  1 1.000000 1.000000  -5.00000   1  201 4.0000 0.4000   400101   391231   0 0   1
      18 "P-19    " 380.00  :  1 1.040000 1.040000  -5.00000   1  201 4.0000 0.4000   400101   391231   0 0   1
      19 "P-20    " 380.00  :  2 1.04000 1.040000  -5.00000   1  201 4.0000 0.4000   400101   391231   0 0   1
      20 "P-21    " 380.00  :  1 1.000000 1.000000  -5.00000   1  201 4.0000 0.4000   400101   391231   0 0   1
      21 "P-22    " 380.00  :  1 1.000000 1.000000  -5.00000   1  201 4.0000 0.4000   400101   391231   0 0   1
      22 "P-23    " 380.00  :  1 1.000000 1.000000  -5.00000   1  201 4.0000 0.4000   400101   391231   0 0   1
      23 "P-24    " 380.00  :  2 1.04000 1.040000  -5.00000   1  201 4.0000 0.4000   400101   391231   0 0   1
      24 "P-26    " 380.00  :  2 1.04000 1.040000  -5.00000   1  201 4.0000 0.4000   400101   391231   0 0   1
      25 "E-1     " 380.00  :  1 1.000000 1.000000  -5.00000   2  202 4.0000 0.4000   400101   391231   0 0   1
      26 "E-2     " 380.00  :  1 1.000000 1.000000  -5.00000   2  203 4.0000 0.4000   400101   391231   0 0   1
      27 "E-3     " 380.00  :  2 1.04000 1.040000  -5.00000   2  217 4.0000 0.4000   400101   391231   0 0   1
      28 "E-4     " 380.00  :  2 1.04000 1.040000  -5.00000   2  217 4.0000 0.4000   400101   391231   0 0   1
      29 "E-5     " 380.00  :  2 1.04000 1.040000  -5.00000   2  217 4.0000 0.4000   400101   391231   0 0   1
      30 "E-6     " 380.00  :  1 1.000000 1.000000  -5.00000   2  203 4.0000 0.4000   400101   391231   0 0   1
      31 "E-7     " 380.00  :  2 1.04000 1.040000  -5.00000   2  217 4.0000 0.4000   400101   391231   0 0   1
      32 "E-8     " 380.00  :  2 1.04000 1.040000  -5.00000   2  217 4.0000 0.4000   400101   391231   0 0   1
      33 "E-9     " 380.00  :  2 1.04000 1.040000  -5.00000   2  217 4.0000 0.4000   400101   391231   0 0   1
      34 "E-10    " 380.00  :  1 1.000000 1.000000  -5.00000   2  202 4.0000 0.4000   400101   391231   0 0   1
      35 "E-11    " 380.00  :  1 1.000000 1.000000  -5.00000   2  204 4.0000 0.4000   400101   391231   0 0   1
      36 "E-12    " 380.00  :  1 1.000000 1.000000  -5.00000   2  202 4.0000 0.4000   400101   391231   0 0   1
      37 "E-13    " 380.00  :  1 1.000000 1.000000  -5.00000   2  205 4.0000 0.4000   400101   391231   0 0   1
      38 "E-14    " 380.00  :  1 1.000000 1.000000  -5.00000   2  204 4.0000 0.4000   400101   391231   0 0   1
      39 "E-E_Arka" 380.00  :  2 1.04000 1.040000  -5.00000   2  217 4.0000 0.4000   400101   391231   0 0   1
      40 "E-16    " 380.00  :  1 1.000000 1.000000  -5.00000   2  202 4.0000 0.4000   400101   391231   0 0   1
      41 "E-17    " 380.00  :  1 1.000000 1.000000  -5.00000   2  205 4.0000 0.4000   400101   391231   0 0   1
      42 "E-18    " 380.00  :  2 1.04000 1.040000  -5.00000   2  217 4.0000 0.4000   400101   391231   0 0   1
      43 "E-19    " 380.00  :  1 1.000000 1.000000  -5.00000   2  205 4.0000 0.4000   400101   391231   0 0   1
      44 "E-20    " 380.00  :  1 1.000000 1.000000  -5.00000   2  202 4.0000 0.4000   400101   391231   0 0   1
      45 "E-21    " 380.00  :  1 1.000000 1.000000  -5.00000   2  213 4.0000 0.4000   400101   391231   0 0   1
      46 "E-22    " 380.00  :  2 1.04000 1.040000  -5.00000   2  217 4.0000 0.4000   400101   391231   0 0   1
      47 "E-23    " 380.00  :  1 1.000000 1.000000  -5.00000   2  213 4.0000 0.4000   400101   391231   0 0   1
      48 "E-24    " 380.00  :  1 1.000000 1.000000  -5.00000   2  205 4.0000 0.4000   400101   391231   0 0   1
      49 "E-25    " 380.00  :  1 1.000000 1.000000  -5.00000   2  205 4.0000 0.4000   400101   391231   0 0   1
      50 "E-26    " 380.00  :  2 1.04000 1.040000  -5.00000   2  217 4.0000 0.4000   400101   391231   0 0   1
      51 "E-27    " 380.00  :  2 1.04000 1.040000  -5.00000   2  217 4.0000 0.4000   400101   391231   0 0   1
      52 "E-28    " 380.00  :  2 1.04000 1.040000  -5.00000   2  217 4.0000 0.4000   400101   391231   0 0   1
      53 "E-29    " 380.00  :  2 1.04000 1.040000  -5.00000   2  217 4.0000 0.4000   400101   391231   0 0   1
      54 "E-30    " 380.00  :  2 1.04000 1.040000  -5.00000   2  217 4.0000 0.4000   400101   391231   0 0   1
      55 "E-31    " 380.00  :  1 1.000000 1.000000  -5.00000   2  202 4.0000 0.4000   400101   391231   0 0   1
      56 "E-32    " 380.00  :  1 1.000000 1.000000  -5.00000   2  213 4.0000 0.4000   400101   391231   0 0   1
      57 "E-33    " 380.00  :  1 1.000000 1.000000  -5.00000   2  204 4.0000 0.4000   400101   391231   0 0   1
      58 "E-34    " 380.00  :  1 1.000000 1.000000  -5.00000   2  205 4.0000 0.4000   400101   391231   0 0   1
      59 "E-35    " 380.00  :  1 1.000000 1.000000  -5.00000   2  205 4.0000 0.4000   400101   391231   0 0   1
      60 "E-36    " 380.00  :  1 1.000000 1.000000  -5.00000   2  213 4.0000 0.4000   400101   391231   0 0   1
      61 "E-37    " 380.00  :  2 1.04000 1.040000  -5.00000   2  217 4.0000 0.4000   400101   391231   0 0   1
      62 "E-38    " 380.00  :  1 1.000000 1.000000  -5.00000   2  205 4.0000 0.4000   400101   391231   0 0   1
      63 "E-39    " 380.00  :  1 1.000000 1.000000  -5.00000   2  213 4.0000 0.4000   400101   391231   0 0   1
      64 "E-40    " 380.00  :  2 1.04000 1.040000  -5.00000   2  217 4.0000 0.4000   400101   391231   0 0   1
      65 "E-41    " 380.00  :  1 1.000000 1.000000  -5.00000   2  206 4.0000 0.4000   400101   391231   0 0   1
      66 "E-42    " 380.00  :  1 1.000000 1.000000  -5.00000   2  208 4.0000 0.4000   400101   391231   0 0   1
      67 "E-43    " 380.00  :  1 1.000000 1.000000  -5.00000   2  207 4.0000 0.4000   400101   391231   0 0   1
      68 "E-44    " 380.00  :  2 1.04000 1.040000  -5.00000   2  217 4.0000 0.4000   400101   391231   0 0   1
      69 "E-45    " 380.00  :  1 1.000000 1.000000  -5.00000   2  213 4.0000 0.4000   400101   391231   0 0   1
      70 "E-46    " 380.00  :  1 1.000000 1.000000  -5.00000   2  213 4.0000 0.4000   400101   391231   0 0   1
      71 "E-47    " 380.00  :  2 1.04000 1.040000  -5.00000   2  217 4.0000 0.4000   400101   391231   0 0   1
      72 "E-48    " 380.00  :  2 1.04000 1.040000  -5.00000   2  217 4.0000 0.4000   400101   391231   0 0   1
      73 "E-49    " 380.00  :  1 1.000000 1.000000  -5.00000   2  213 4.0000 0.4000   400101   391231   0 0   1
      74 "E-50    " 380.00  :  1 1.000000 1.000000  -5.00000   2  202 4.0000 0.4000   400101   391231   0 0   1
      75 "E_Biesca" 380.00  :  2 1.04000 1.040000  -5.00000   2  217 4.0000 0.4000   400101   391231   0 0   1
      76 "E-52    " 380.00  :  2 1.04000 1.040000  -5.00000   2  217 4.0000 0.4000   400101   391231   0 0   1
      77 "E-53    " 380.00  :  1 1.000000 1.000000  -5.00000   2  206 4.0000 0.4000   400101   391231   0 0   1
      78 "E-54    " 380.00  :  2 1.04000 1.040000  -5.00000   2  217 4.0000 0.4000   400101   391231   0 0   1
      79 "E-55    " 380.00  :  2 1.04000 1.040000  -5.00000   2  217 4.0000 0.4000   400101   391231   0 0   1
      80 "E-56    " 380.00  :  2 1.04000 1.040000  -5.00000   2  217 4.0000 0.4000   400101   391231   0 0   1
      81 "E-57    " 380.00  :  2 1.04000 1.040000  -5.00000   2  217 4.0000 0.4000   400101   391231   0 0   1
      82 "E-58    " 380.00  :  1 1.000000 1.000000  -5.00000   2  206 4.0000 0.4000   400101   391231   0 0   1
      83 "E-59    " 380.00  :  2 1.04000 1.040000  -5.00000   2  217 4.0000 0.4000   400101   391231   0 0   1
      84 "E-60    " 380.00  :  2 1.04000 1.040000  -5.00000   2  217 4.0000 0.4000   400101   391231   0 0   1
      85 "E-61    " 380.00  :  1 1.000000 1.000000  -5.00000   2  207 4.0000 0.4000   400101   391231   0 0   1
      86 "E-62    " 380.00  :  1 1.000000 1.000000  -5.00000   2  208 4.0000 0.4000   400101   391231   0 0   1
      87 "E-63    " 380.00  :  2 1.04000 1.040000  -5.00000   2  217 4.0000 0.4000   400101   391231   0 0   1
      88 "E-64    " 380.00  :  1 1.000000 1.000000  -5.00000   2  213 4.0000 0.4000   400101   391231   0 0   1
      89 "E-65    " 380.00  :  1 1.000000 1.000000  -5.00000   2  207 4.0000 0.4000   400101   391231   0 0   1
      90 "E-66    " 380.00  :  2 1.04000 1.040000  -5.00000   2  217 4.0000 0.4000   400101   391231   0 0   1
      91 "E-67    " 380.00  :  2 1.04000 1.040000  -5.00000   2  217 4.0000 0.4000   400101   391231   0 0   1
      92 "E-68    " 380.00  :  1 1.000000 1.000000  -5.00000   2  213 4.0000 0.4000   400101   391231   0 0   1
      93 "E-69    " 380.00  :  1 1.000000 1.000000  -5.00000   2  208 4.0000 0.4000   400101   391231   0 0   1
      94 "E-70    " 380.00  :  1 1.000000 1.000000  -5.00000   2  207 4.0000 0.4000   400101   391231   0 0   1
      95 "E-71    " 380.00  :  1 1.000000 1.000000  -5.00000   2  213 4.0000 0.4000   400101   391231   0 0   1
      96 "E-72    " 380.00  :  1 1.000000 1.000000  -5.00000   2  208 4.0000 0.4000   400101   391231   0 0   1
      97 "E-73    " 380.00  :  2 1.04000 1.040000  -5.00000   2  217 4.0000 0.4000   400101   391231   0 0   1
      98 "E-74    " 380.00  :  2 1.04000 1.040000  -5.00000   2  217 4.0000 0.4000   400101   391231   0 0   1
      99 "E-75    " 380.00  :  1 1.000000 1.000000  -5.00000   2  213 4.0000 0.4000   400101   391231   0 0   1
     100 "E-76    " 380.00  :  1 1.000000 1.000000  -5.00000   2  208 4.0000 0.4000   400101   391231   0 0   1
     101 "E_Vic   " 380.00  :  2 1.04000 1.040000  -5.00000   2  217 4.0000 0.4000   400101   391231   0 0   1
     102 "E-78    " 380.00  :  1 1.000000 1.000000  -5.00000   2  213 4.0000 0.4000   400101   391231   0 0   1
     103 "E-79    " 380.00  :  1 1.000000 1.000000  -5.00000   2  216 4.0000 0.4000   400101   391231   0 0   1
     104 "E-80    " 380.00  :  1 1.000000 1.000000  -5.00000   2  216 4.0000 0.4000   400101   391231   0 0   1
     105 "E-81    " 380.00  :  1 1.000000 1.000000  -5.00000   2  213 4.0000 0.4000   400101   391231   0 0   1
     106 "E-82    " 380.00  :  1 1.000000 1.000000  -5.00000   2  208 4.0000 0.4000   400101   391231   0 0   1
     107 "E-83    " 380.00  :  1 1.000000 1.000000  -5.00000   2  216 4.0000 0.4000   400101   391231   0 0   1
     108 "E-84    " 380.00  :  1 1.000000 1.000000  -5.00000   2  216 4.0000 0.4000   400101   391231   0 0   1
     109 "E-85    " 380.00  :  1 1.000000 1.000000  -5.00000   2  213 4.0000 0.4000   400101   391231   0 0   1
     110 "E-86    " 380.00  :  1 1.000000 1.000000  -5.00000   2  213 4.0000 0.4000   400101   391231   0 0   1
     111 "E-87    " 380.00  :  1 1.000000 1.000000  -5.00000   2  208 4.0000 0.4000   400101   391231   0 0   1
     112 "E-88    " 380.00  :  1 1.000000 1.000000  -5.00000   2  213 4.0000 0.4000   400101   391231   0 0   1
     113 "E-89    " 380.00  :  1 1.000000 1.000000  -5.00000   2  213 4.0000 0.4000   400101   391231   0 0   1
     114 "E-90    " 380.00  :  2 1.04000 1.040000  -5.00000   2  217 4.0000 0.4000   400101   391231   0 0   1
     115 "E-91    " 380.00  :  1 1.000000 1.000000  -5.00000   2  208 4.0000 0.4000   400101   391231   0 0   1
     116 "E-92    " 380.00  :  1 1.000000 1.000000  -5.00000   2  213 4.0000 0.4000   400101   391231   0 0   1
     117 "E-93    " 380.00  :  1 1.000000 1.000000  -5.00000   2  208 4.0000 0.4000   400101   391231   0 0   1
     118 "E-94    " 380.00  :  1 1.000000 1.000000  -5.00000   2  208 4.0000 0.4000   400101   391231   0 0   1
     119 "E-95    " 380.00  :  1 1.000000 1.000000  -5.00000   2  216 4.0000 0.4000   400101   391231   0 0   1
     120 "E-96    " 380.00  :  1 1.000000 1.000000  -5.00000   2  216 4.0000 0.4000   400101   391231   0 0   1
     121 "E-97    " 380.00  :  1 1.000000 1.000000  -5.00000   2  216 4.0000 0.4000   400101   391231   0 0   1
     122 "E-98    " 380.00  :  1 1.000000 1.000000  -5.00000   2  208 4.0000 0.4000   400101   391231   0 0   1
     123 "E-99    " 380.00  :  1 1.000000 1.000000  -5.00000   2  213 4.0000 0.4000   400101   391231   0 0   1
     124 "E-100   " 380.00  :  1 1.000000 1.000000  -5.00000   2  208 4.0000 0.4000   400101   391231   0 0   1
     125 "E-101   " 380.00  :  1 1.000000 1.000000  -5.00000   2  213 4.0000 0.4000   400101   391231   0 0   1
     126 "E-102   " 380.00  :  2 1.04000 1.040000  -5.00000   2  217 4.0000 0.4000   400101   391231   0 0   1
     127 "E-103   " 380.00  :  2 1.04000 1.040000  -5.00000   2  217 4.0000 0.4000   400101   391231   0 0   1
     128 "E-104   " 380.00  :  2 1.04000 1.040000  -5.00000   2  217 4.0000 0.4000   400101   391231   0 0   1
     129 "E-105   " 380.00  :  1 1.000000 1.000000  -5.00000   2  208 4.0000 0.4000   400101   391231   0 0   1
     130 "E-106   " 380.00  :  1 1.000000 1.000000  -5.00000   2  208 4.0000 0.4000   400101   391231   0 0   1
     131 "E-107   " 380.00  :  1 1.000000 1.000000  -5.00000   2  216 4.0000 0.4000   400101   391231   0 0   1
     132 "E-108   " 380.00  :  2 1.04000 1.040000  -5.00000   2  217 4.0000 0.4000   400101   391231   0 0   1
     133 "E-109   " 380.00  :  2 1.04000 1.040000  -5.00000   2  217 4.0000 0.4000   400101   391231   0 0   1
     134 "E-110   " 380.00  :  1 1.000000 1.000000  -5.00000   2  208 4.0000 0.4000   400101   391231   0 0   1
     135 "E-111   " 380.00  :  1 1.000000 1.000000  -5.00000   2  213 4.0000 0.4000   400101   391231   0 0   1
     136 "E-112   " 380.00  :  2 1.04000 1.040000  -5.00000   2  217 4.0000 0.4000   400101   391231   0 0   1
     137 "E-113   " 380.00  :  1 1.000000 1.000000  -5.00000   2  208 4.0000 0.4000   400101   391231   0 0   1
     138 "E-114   " 380.00  :  2 1.04000 1.040000  -5.00000   2  217 4.0000 0.4000   400101   391231   0 0   1
     139 "E-115   " 380.00  :  1 1.000000 1.000000  -5.00000   2  208 4.0000 0.4000   400101   391231   0 0   1
     140 "E-116   " 380.00  :  1 1.000000 1.000000  -5.00000   2  213 4.0000 0.4000   400101   391231   0 0   1
     141 "E-117   " 380.00  :  2 1.04000 1.040000  -5.00000   2  217 4.0000 0.4000   400101   391231   0 0   1
     142 "E-118   " 380.00  :  1 1.000000 1.000000  -5.00000   2  213 4.0000 0.4000   400101   391231   0 0   1
     143 "E-119   " 380.00  :  2 1.04000 1.040000  -5.00000   2  217 4.0000 0.4000   400101   391231   0 0   1
     144 "E-120   " 380.00  :  2 1.04000 1.040000  -5.00000   2  217 4.0000 0.4000   400101   391231   0 0   1
     145 "E-121   " 380.00  :  1 1.000000 1.000000  -5.00000   2  214 4.0000 0.4000   400101   391231   0 0   1
     146 "E-122   " 380.00  :  1 1.000000 1.000000  -5.00000   2  214 4.0000 0.4000   400101   391231   0 0   1
     147 "E-123   " 380.00  :  1 1.000000 1.000000  -5.00000   2  214 4.0000 0.4000   400101   391231   0 0   1
     148 "E-124   " 380.00  :  1 1.000000 1.000000  -5.00000   2  215 4.0000 0.4000   400101   391231   0 0   1
     149 "E-125   " 380.00  :  1 1.000000 1.000000  -5.00000   2  214 4.0000 0.4000   400101   391231   0 0   1
     150 "E-126   " 380.00  :  1 1.000000 1.000000  -5.00000   2  210 4.0000 0.4000   400101   391231   0 0   1
     151 "E-127   " 380.00  :  1 1.000000 1.000000  -5.00000   2  214 4.0000 0.4000   400101   391231   0 0   1
     152 "E-128   " 380.00  :  2 1.04000 1.040000  -5.00000   2  217 4.0000 0.4000   400101   391231   0 0   1
     153 "E-129   " 380.00  :  2 1.04000 1.040000  -5.00000   2  217 4.0000 0.4000   400101   391231   0 0   1
     154 "E-130   " 380.00  :  1 1.000000 1.000000  -5.00000   2  214 4.0000 0.4000   400101   391231   0 0   1
     155 "E-131   " 380.00  :  1 1.000000 1.000000  -5.00000   2  215 4.0000 0.4000   400101   391231   0 0   1
     156 "E-132   " 380.00  :  1 1.000000 1.000000  -5.00000   2  214 4.0000 0.4000   400101   391231   0 0   1
     157 "E-133   " 380.00  :  1 1.000000 1.000000  -5.00000   2  212 4.0000 0.4000   400101   391231   0 0   1
     158 "E-134   " 380.00  :  1 1.000000 1.000000  -5.00000   2  215 4.0000 0.4000   400101   391231   0 0   1
     159 "E-135   " 380.00  :  2 1.04000 1.040000  -5.00000   2  217 4.0000 0.4000   400101   391231   0 0   1
     160 "E-136   " 380.00  :  2 1.04000 1.040000  -5.00000   2  217 4.0000 0.4000   400101   391231   0 0   1
     161 "E-137   " 380.00  :  2 1.04000 1.040000  -5.00000   2  217 4.0000 0.4000   400101   391231   0 0   1
     162 "E-138   " 380.00  :  2 1.04000 1.040000  -5.00000   2  217 4.0000 0.4000   400101   391231   0 0   1
     163 "E-139   " 380.00  :  2 1.04000 1.040000  -5.00000   2  217 4.0000 0.4000   400101   391231   0 0   1
     164 "E-140   " 380.00  :  2 1.04000 1.040000  -5.00000   2  217 4.0000 0.4000   400101   391231   0 0   1
     165 "E-141   " 380.00  :  2 1.04000 1.040000  -5.00000   2  217 4.0000 0.4000   400101   391231   0 0   1
     166 "E-142   " 380.00  :  2 1.04000 1.040000  -5.00000   2  217 4.0000 0.4000   400101   391231   0 0   1
     167 "E-143   " 380.00  :  1 1.000000 1.000000  -5.00000   2  215 4.0000 0.4000   400101   391231   0 0   1
     168 "E-144   " 380.00  :  1 1.000000 1.000000  -5.00000   2  215 4.0000 0.4000   400101   391231   0 0   1
     169 "E-145   " 380.00  :  1 1.000000 1.000000  -5.00000   2  212 4.0000 0.4000   400101   391231   0 0   1
     170 "E-146   " 380.00  :  1 1.000000 1.000000  -5.00000   2  210 4.0000 0.4000   400101   391231   0 0   1
     171 "E-147   " 380.00  :  1 1.000000 1.000000  -5.00000   2  215 4.0000 0.4000   400101   391231   0 0   1
     172 "E-148   " 380.00  :  1 1.000000 1.000000  -5.00000   2  210 4.0000 0.4000   400101   391231   0 0   1
     173 "E-149   " 380.00  :  1 1.000000 1.000000  -5.00000   2  215 4.0000 0.4000   400101   391231   0 0   1
     174 "E-150   " 380.00  :  2 1.04000 1.040000  -5.00000   2  217 4.0000 0.4000   400101   391231   0 0   1
     175 "E-151   " 380.00  :  1 1.000000 1.000000  -5.00000   2  210 4.0000 0.4000   400101   391231   0 0   1
     176 "E-152   " 380.00  :  2 1.04000 1.040000  -5.00000   2  217 4.0000 0.4000   400101   391231   0 0   1
     177 "E-153   " 380.00  :  1 1.000000 1.000000  -5.00000   2  210 4.0000 0.4000   400101   391231   0 0   1
     178 "E-154   " 380.00  :  1 1.000000 1.000000  -5.00000   2  212 4.0000 0.4000   400101   391231   0 0   1
     179 "E-155   " 380.00  :  1 1.000000 1.000000  -5.00000   2  215 4.0000 0.4000   400101   391231   0 0   1
     180 "E-156   " 380.00  :  1 1.000000 1.000000  -5.00000   2  215 4.0000 0.4000   400101   391231   0 0   1
     181 "E-157   " 380.00  :  1 1.000000 1.000000  -5.00000   2  215 4.0000 0.4000   400101   391231   0 0   1
     182 "E-158   " 380.00  :  1 1.000000 1.000000  -5.00000   2  215 4.0000 0.4000   400101   391231   0 0   1
     183 "E-159   " 380.00  :  1 1.000000 1.000000  -5.00000   2  210 4.0000 0.4000   400101   391231   0 0   1
     184 "E-160   " 380.00  :  2 1.04000 1.040000  -5.00000   2  217 4.0000 0.4000   400101   391231   0 0   1
     185 "E-161   " 380.00  :  1 1.000000 1.000000  -5.00000   2  215 4.0000 0.4000   400101   391231   0 0   1
     186 "E-162   " 380.00  :  1 1.000000 1.000000  -5.00000   2  210 4.0000 0.4000   400101   391231   0 0   1
     187 "E-163   " 380.00  :  1 1.000000 1.000000  -5.00000   2  215 4.0000 0.4000   400101   391231   0 0   1
     188 "E-164   " 380.00  :  1 1.000000 1.000000  -5.00000   2  212 4.0000 0.4000   400101   391231   0 0   1
     189 "E-165   " 380.00  :  1 1.000000 1.000000  -5.00000   2  210 4.0000 0.4000   400101   391231   0 0   1
     190 "E-166   " 380.00  :  1 1.000000 1.000000  -5.00000   2  212 4.0000 0.4000   400101   391231   0 0   1
     191 "E-167   " 380.00  :  1 1.000000 1.000000  -5.00000   2  211 4.0000 0.4000   400101   391231   0 0   1
     192 "E-168   " 380.00  :  1 1.000000 1.000000  -5.00000   2  209 4.0000 0.4000   400101   391231   0 0   1
     193 "E-169   " 380.00  :  1 1.000000 1.000000  -5.00000   2  211 4.0000 0.4000   400101   391231   0 0   1
     194 "E-170   " 380.00  :  1 1.000000 1.000000  -5.00000   2  211 4.0000 0.4000   400101   391231   0 0   1
     195 "E-171   " 380.00  :  1 1.000000 1.000000  -5.00000   2  211 4.0000 0.4000   400101   391231   0 0   1
     196 "E-172   " 380.00  :  1 1.000000 1.000000  -5.00000   2  209 4.0000 0.4000   400101   391231   0 0   1
     197 "E-173   " 380.00  :  1 1.000000 1.000000  -5.00000   2  210 4.0000 0.4000   400101   391231   0 0   1
     198 "E-174   " 380.00  :  1 1.000000 1.000000  -5.00000   2  209 4.0000 0.4000   400101   391231   0 0   1
     199 "E-175   " 380.00  :  2 1.04000 1.040000  -5.00000   2  217 4.0000 0.4000   400101   391231   0 0   1
     200 "E-176   " 380.00  :  1 1.000000 1.000000  -5.00000   2  209 4.0000 0.4000   400101   391231   0 0   1
...
branch data  [ 1944]                                 ck  se  long_id_    st resist   react   charge   rate1  rate2  rate3  rate4 aloss  lngth
      1 "P-1     " 380.00       2 "P-2     " 380.00 "1 "  1 "        " :  1 0.00000 0.02348 0.00000    0.0    0.0    0.0    0.0 1.000    1.0 /
  1 201 0.0000 0.000 1.000   400101   391231   0 1  0    0.0    0.0    0.0    0.0   1 1.000   0 1.000   0 1.000   0 1.000   0 0.000   0 0.000   0 0.000   0 0.000  0
      1 "P-1     " 380.00       2 "P-2     " 380.00 "2 "  1 "        " :  1 0.00000 0.02345 0.00000    0.0    0.0    0.0    0.0 1.000    1.0 /
  1 201 0.0000 0.000 1.000   400101   391231   0 1  0    0.0    0.0    0.0    0.0   1 1.000   0 1.000   0 1.000   0 1.000   0 0.000   0 0.000   0 0.000   0 0.000  0
      1 "P-1     " 380.00      79 "E-55    " 380.00 "1 "  1 "        " :  1 0.00000 0.02073 0.00000 1260.0    0.0    0.0    0.0 1.000    1.0 /
  1 201 0.0000 0.000 1.000   400101   391231   0 1  0    0.0    0.0    0.0    0.0   1 1.000   0 1.000   0 1.000   0 1.000   0 0.000   0 0.000   0 0.000   0 0.000  0
      6 "P-6     " 380.00       2 "P-2     " 380.00 "1 "  1 "        " :  1 0.00000 0.01533 0.00000    0.0    0.0    0.0    0.0 1.000    1.0 /
  1 201 0.0000 0.000 1.000   400101   391231   0 1  0    0.0    0.0    0.0    0.0   1 1.000   0 1.000   0 1.000   0 1.000   0 0.000   0 0.000   0 0.000   0 0.000  0
      6 "P-6     " 380.00       2 "P-2     " 380.00 "2 "  1 "        " :  1 0.00000 0.01603 0.00000    0.0    0.0    0.0    0.0 1.000    1.0 /
  1 201 0.0000 0.000 1.000   400101   391231   0 1  0    0.0    0.0    0.0    0.0   1 1.000   0 1.000   0 1.000   0 1.000   0 0.000   0 0.000   0 0.000   0 0.000  0
      4 "P-4     " 380.00       3 "P-3     " 380.00 "1 "  1 "        " :  1 0.00000 0.05409 0.00000    0.0    0.0    0.0    0.0 1.000    1.0 /
  1 201 0.0000 0.000 1.000   400101   391231   0 1  0    0.0    0.0    0.0    0.0   1 1.000   0 1.000   0 1.000   0 1.000   0 0.000   0 0.000   0 0.000   0 0.000  0
      5 "P-5     " 380.00       3 "P-3     " 380.00 "1 "  1 "        " :  1 0.00000 0.08701 0.00000    0.0    0.0    0.0    0.0 1.000    1.0 /
  1 201 0.0000 0.000 1.000   400101   391231   0 1  0    0.0    0.0    0.0    0.0   1 1.000   0 1.000   0 1.000   0 1.000   0 0.000   0 0.000   0 0.000   0 0.000  0
      4 "P-4     " 380.00       8 "P-9     " 380.00 "1 "  1 "        " :  1 0.00000 0.10355 0.00000    0.0    0.0    0.0    0.0 1.000    1.0 /
  1 201 0.0000 0.000 1.000   400101   391231   0 1  0    0.0    0.0    0.0    0.0   1 1.000   0 1.000   0 1.000   0 1.000   0 0.000   0 0.000   0 0.000   0 0.000  0
      8 "P-9     " 380.00       4 "P-4     " 380.00 "2 "  1 "        " :  1 0.00000 0.10192 0.00000    0.0    0.0    0.0    0.0 1.000    1.0 /
  1 201 0.0000 0.000 1.000   400101   391231   0 1  0    0.0    0.0    0.0    0.0   1 1.000   0 1.000   0 1.000   0 1.000   0 0.000   0 0.000   0 0.000   0 0.000  0
      5 "P-5     " 380.00       7 "P-7     " 380.00 "1 "  1 "        " :  1 0.00000 0.03086 0.00000    0.0    0.0    0.0    0.0 1.000    1.0 /
  1 201 0.0000 0.000 1.000   400101   391231   0 1  0    0.0    0.0    0.0    0.0   1 1.000   0 1.000   0 1.000   0 1.000   0 0.000   0 0.000   0 0.000   0 0.000  0
      6 "P-6     " 380.00       7 "P-7     " 380.00 "1 "  1 "        " :  1 0.00000 0.03288 0.00000    0.0    0.0    0.0    0.0 1.000    1.0 /
  1 201 0.0000 0.000 1.000   400101   391231   0 1  0    0.0    0.0    0.0    0.0   1 1.000   0 1.000   0 1.000   0 1.000   0 0.000   0 0.000   0 0.000   0 0.000  0
      6 "P-6     " 380.00       7 "P-7     " 380.00 "2 "  1 "        " :  1 0.00000 0.06928 0.00000    0.0    0.0    0.0    0.0 1.000    1.0 /
  1 201 0.0000 0.000 1.000   400101   391231   0 1  0    0.0    0.0    0.0    0.0   1 1.000   0 1.000   0 1.000   0 1.000   0 0.000   0 0.000   0 0.000   0 0.000  0
      6 "P-6     " 380.00       7 "P-7     " 380.00 "3 "  1 "        " :  1 0.00000 0.07738 0.00000    0.0    0.0    0.0    0.0 1.000    1.0 /
  1 201 0.0000 0.000 1.000   400101   391231   0 1  0    0.0    0.0    0.0    0.0   1 1.000   0 1.000   0 1.000   0 1.000   0 0.000   0 0.000   0 0.000   0 0.000  0
      7 "P-7     " 380.00       6 "P-6     " 380.00 "4 "  1 "        " :  1 0.00000 0.03420 0.00000    0.0    0.0    0.0    0.0 1.000    1.0 /
  1 201 0.0000 0.000 1.000   400101   391231   0 1  0    0.0    0.0    0.0    0.0   1 1.000   0 1.000   0 1.000   0 1.000   0 0.000   0 0.000   0 0.000   0 0.000  0
     10 "P-11    " 380.00       6 "P-6     " 380.00 "1 "  1 "        " :  1 0.00000 0.06738 0.00000    0.0    0.0    0.0    0.0 1.000    1.0 /
  1 201 0.0000 0.000 1.000   400101   391231   0 1  0    0.0    0.0    0.0    0.0   1 1.000   0 1.000   0 1.000   0 1.000   0 0.000   0 0.000   0 0.000   0 0.000  0
     20 "P-21    " 380.00       6 "P-6     " 380.00 "1 "  1 "        " :  1 0.00000 0.08181 0.00000    0.0    0.0    0.0    0.0 1.000    1.0 /
  1 201 0.0000 0.000 1.000   400101   391231   0 1  0    0.0    0.0    0.0    0.0   1 1.000   0 1.000   0 1.000   0 1.000   0 0.000   0 0.000   0 0.000   0 0.000  0
     20 "P-21    " 380.00       6 "P-6     " 380.00 "2 "  1 "        " :  1 0.00000 0.08486 0.00000    0.0    0.0    0.0    0.0 1.000    1.0 /
  1 201 0.0000 0.000 1.000   400101   391231   0 1  0    0.0    0.0    0.0    0.0   1 1.000   0 1.000   0 1.000   0 1.000   0 0.000   0 0.000   0 0.000   0 0.000  0
      7 "P-7     " 380.00       8 "P-9     " 380.00 "1 "  1 "        " :  1 0.00000 0.03422 0.00000    0.0    0.0    0.0    0.0 1.000    1.0 /
  1 201 0.0000 0.000 1.000   400101   391231   0 1  0    0.0    0.0    0.0    0.0   1 1.000   0 1.000   0 1.000   0 1.000   0 0.000   0 0.000   0 0.000   0 0.000  0
      8 "P-9     " 380.00       7 "P-7     " 380.00 "2 "  1 "        " :  1 0.00000 0.10063 0.00000    0.0    0.0    0.0    0.0 1.000    1.0 /
  1 201 0.0000 0.000 1.000   400101   391231   0 1  0    0.0    0.0    0.0    0.0   1 1.000   0 1.000   0 1.000   0 1.000   0 0.000   0 0.000   0 0.000   0 0.000  0
      9 "P-10    " 380.00       8 "P-9     " 380.00 "1 "  1 "        " :  1 0.00000 0.06950 0.00000    0.0    0.0    0.0    0.0 1.000    1.0 /
  1 201 0.0000 0.000 1.000   400101   391231   0 1  0    0.0    0.0    0.0    0.0   1 1.000   0 1.000   0 1.000   0 1.000   0 0.000   0 0.000   0 0.000   0 0.000  0
      9 "P-10    " 380.00       8 "P-9     " 380.00 "2 "  1 "        " :  1 0.00000 0.07077 0.00000    0.0    0.0    0.0    0.0 1.000    1.0 /
  1 201 0.0000 0.000 1.000   400101   391231   0 1  0    0.0    0.0    0.0    0.0   1 1.000   0 1.000   0 1.000   0 1.000   0 0.000   0 0.000   0 0.000   0 0.000  0
      8 "P-9     " 380.00     127 "E-103   " 380.00 "1 "  1 "        " :  1 0.00000 0.05960 0.00000  340.0    0.0    0.0    0.0 1.000    1.0 /
  1 201 0.0000 0.000 1.000   400101   391231   0 1  0    0.0    0.0    0.0    0.0   1 1.000   0 1.000   0 1.000   0 1.000   0 0.000   0 0.000   0 0.000   0 0.000  0
      8 "P-9     " 380.00     133 "E-109   " 380.00 "1 "  1 "        " :  1 0.00000 0.04468 0.00000  340.0    0.0    0.0    0.0 1.000    1.0 /
  1 201 0.0000 0.000 1.000   400101   391231   0 1  0    0.0    0.0    0.0    0.0   1 1.000   0 1.000   0 1.000   0 1.000   0 0.000   0 0.000   0 0.000   0 0.000  0
     11 "P-12    " 380.00       9 "P-10    " 380.00 "1 "  1 "        " :  1 0.00000 0.05734 0.00000    0.0    0.0    0.0    0.0 1.000    1.0 /
  1 201 0.0000 0.000 1.000   400101   391231   0 1  0    0.0    0.0    0.0    0.0   1 1.000   0 1.000   0 1.000   0 1.000   0 0.000   0 0.000   0 0.000   0 0.000  0
     13 "P-14    " 380.00       9 "P-10    " 380.00 "1 "  1 "        " :  1 0.00000 0.06538 0.00000    0.0    0.0    0.0    0.0 1.000    1.0 /
  1 201 0.0000 0.000 1.000   400101   391231   0 1  0    0.0    0.0    0.0    0.0   1 1.000   0 1.000   0 1.000   0 1.000   0 0.000   0 0.000   0 0.000   0 0.000  0
     12 "P-13    " 380.00      10 "P-11    " 380.00 "1 "  1 "        " :  1 0.00000 0.04151 0.00000    0.0    0.0    0.0    0.0 1.000    1.0 /
  1 201 0.0000 0.000 1.000   400101   391231   0 1  0    0.0    0.0    0.0    0.0   1 1.000   0 1.000   0 1.000   0 1.000   0 0.000   0 0.000   0 0.000   0 0.000  0
     13 "P-14    " 380.00      11 "P-12    " 380.00 "1 "  1 "        " :  1 0.00000 0.03911 0.00000    0.0    0.0    0.0    0.0 1.000    1.0 /
  1 201 0.0000 0.000 1.000   400101   391231   0 1  0    0.0    0.0    0.0    0.0   1 1.000   0 1.000   0 1.000   0 1.000   0 0.000   0 0.000   0 0.000   0 0.000  0
     12 "P-13    " 380.00      15 "P-16    " 380.00 "1 "  1 "        " :  1 0.00000 0.04595 0.00000    0.0    0.0    0.0    0.0 1.000    1.0 /
  1 201 0.0000 0.000 1.000   400101   391231   0 1  0    0.0    0.0    0.0    0.0   1 1.000   0 1.000   0 1.000   0 1.000   0 0.000   0 0.000   0 0.000   0 0.000  0
     15 "P-16    " 380.00      13 "P-14    " 380.00 "1 "  1 "        " :  1 0.00000 0.10509 0.00000    0.0    0.0    0.0    0.0 1.000    1.0 /
  1 201 0.0000 0.000 1.000   400101   391231   0 1  0    0.0    0.0    0.0    0.0   1 1.000   0 1.000   0 1.000   0 1.000   0 0.000   0 0.000   0 0.000   0 0.000  0
     15 "P-16    " 380.00      13 "P-14    " 380.00 "2 "  1 "        " :  1 0.00000 0.10067 0.00000    0.0    0.0    0.0    0.0 1.000    1.0 /
  1 201 0.0000 0.000 1.000   400101   391231   0 1  0    0.0    0.0    0.0    0.0   1 1.000   0 1.000   0 1.000   0 1.000   0 0.000   0 0.000   0 0.000   0 0.000  0
     15 "P-16    " 380.00      14 "P-15    " 380.00 "1 "  1 "        " :  1 0.00000 0.02390 0.00000    0.0    0.0    0.0    0.0 1.000    1.0 /
  1 201 0.0000 0.000 1.000   400101   391231   0 1  0    0.0    0.0    0.0    0.0   1 1.000   0 1.000   0 1.000   0 1.000   0 0.000   0 0.000   0 0.000   0 0.000  0
     15 "P-16    " 380.00      16 "P-17    " 380.00 "1 "  1 "        " :  1 0.00000 0.05326 0.00000    0.0    0.0    0.0    0.0 1.000    1.0 /
  1 201 0.0000 0.000 1.000   400101   391231   0 1  0    0.0    0.0    0.0    0.0   1 1.000   0 1.000   0 1.000   0 1.000   0 0.000   0 0.000   0 0.000   0 0.000  0
     15 "P-16    " 380.00      17 "P-18    " 380.00 "1 "  1 "        " :  1 0.00000 0.07751 0.00000    0.0    0.0    0.0    0.0 1.000    1.0 /
  1 201 0.0000 0.000 1.000   400101   391231   0 1  0    0.0    0.0    0.0    0.0   1 1.000   0 1.000   0 1.000   0 1.000   0 0.000   0 0.000   0 0.000   0 0.000  0
     17 "P-18    " 380.00      16 "P-17    " 380.00 "1 "  1 "        " :  1 0.00000 0.05277 0.00000    0.0    0.0    0.0    0.0 1.000    1.0 /
  1 201 0.0000 0.000 1.000   400101   391231   0 1  0    0.0    0.0    0.0    0.0   1 1.000   0 1.000   0 1.000   0 1.000   0 0.000   0 0.000   0 0.000   0 0.000  0
     20 "P-21    " 380.00      17 "P-18    " 380.00 "1 "  1 "        " :  1 0.00000 0.05854 0.00000    0.0    0.0    0.0    0.0 1.000    1.0 /
  1 201 0.0000 0.000 1.000   400101   391231   0 1  0    0.0    0.0    0.0    0.0   1 1.000   0 1.000   0 1.000   0 1.000   0 0.000   0 0.000   0 0.000   0 0.000  0
     20 "P-21    " 380.00      17 "P-18    " 380.00 "2 "  1 "        " :  1 0.00000 0.04853 0.00000    0.0    0.0    0.0    0.0 1.000    1.0 /
  1 201 0.0000 0.000 1.000   400101   391231   0 1  0    0.0    0.0    0.0    0.0   1 1.000   0 1.000   0 1.000   0 1.000   0 0.000   0 0.000   0 0.000   0 0.000  0
     19 "P-20    " 380.00      18 "P-19    " 380.00 "1 "  1 "        " :  1 0.00000 0.02887 0.00000    0.0    0.0    0.0    0.0 1.000    1.0 /
  1 201 0.0000 0.000 1.000   400101   391231   0 1  0    0.0    0.0    0.0    0.0   1 1.000   0 1.000   0 1.000   0 1.000   0 0.000   0 0.000   0 0.000   0 0.000  0
     18 "P-19    " 380.00     165 "E-141   " 380.00 "1 "  1 "        " :  1 0.00000 0.00575 0.00000  750.0    0.0    0.0    0.0 1.000    1.0 /
  1 201 0.0000 0.000 1.000   400101   391231   0 1  0    0.0    0.0    0.0    0.0   1 1.000   0 1.000   0 1.000   0 1.000   0 0.000   0 0.000   0 0.000   0 0.000  0
     20 "P-21    " 380.00      19 "P-20    " 380.00 "1 "  1 "        " :  1 0.00000 0.03769 0.00000    0.0    0.0    0.0    0.0 1.000    1.0 /
  1 201 0.0000 0.000 1.000   400101   391231   0 1  0    0.0    0.0    0.0    0.0   1 1.000   0 1.000   0 1.000   0 1.000   0 0.000   0 0.000   0 0.000   0 0.000  0
     20 "P-21    " 380.00      21 "P-22    " 380.00 "1 "  1 "        " :  1 0.00000 0.06336 0.00000    0.0    0.0    0.0    0.0 1.000    1.0 /
  1 201 0.0000 0.000 1.000   400101   391231   0 1  0    0.0    0.0    0.0    0.0   1 1.000   0 1.000   0 1.000   0 1.000   0 0.000   0 0.000   0 0.000   0 0.000  0
     20 "P-21    " 380.00      21 "P-22    " 380.00 "2 "  1 "        " :  1 0.00000 0.03603 0.00000    0.0    0.0    0.0    0.0 1.000    1.0 /
  1 201 0.0000 0.000 1.000   400101   391231   0 1  0    0.0    0.0    0.0    0.0   1 1.000   0 1.000   0 1.000   0 1.000   0 0.000   0 0.000   0 0.000   0 0.000  0
     21 "P-22    " 380.00      20 "P-21    " 380.00 "3 "  1 "        " :  1 0.00000 0.02275 0.00000    0.0    0.0    0.0    0.0 1.000    1.0 /
  1 201 0.0000 0.000 1.000   400101   391231   0 1  0    0.0    0.0    0.0    0.0   1 1.000   0 1.000   0 1.000   0 1.000   0 0.000   0 0.000   0 0.000   0 0.000  0
     22 "P-23    " 380.00      20 "P-21    " 380.00 "1 "  1 "        " :  1 0.00000 0.10240 0.00000    0.0    0.0    0.0    0.0 1.000    1.0 /
  1 201 0.0000 0.000 1.000   400101   391231   0 1  0    0.0    0.0    0.0    0.0   1 1.000   0 1.000   0 1.000   0 1.000   0 0.000   0 0.000   0 0.000   0 0.000  0
     20 "P-21    " 380.00      23 "P-24    " 380.00 "1 "  1 "        " :  1 0.00000 0.03650 0.00000    0.0    0.0    0.0    0.0 1.000    1.0 /
  1 201 0.0000 0.000 1.000   400101   391231   0 1  0    0.0    0.0    0.0    0.0   1 1.000   0 1.000   0 1.000   0 1.000   0 0.000   0 0.000   0 0.000   0 0.000  0
     22 "P-23    " 380.00      21 "P-22    " 380.00 "1 "  1 "        " :  1 0.00000 0.04487 0.00000    0.0    0.0    0.0    0.0 1.000    1.0 /
  1 201 0.0000 0.000 1.000   400101   391231   0 1  0    0.0    0.0    0.0    0.0   1 1.000   0 1.000   0 1.000   0 1.000   0 0.000   0 0.000   0 0.000   0 0.000  0
     23 "P-24    " 380.00      21 "P-22    " 380.00 "1 "  1 "        " :  1 0.00000 0.02735 0.00000    0.0    0.0    0.0    0.0 1.000    1.0 /
  1 201 0.0000 0.000 1.000   400101   391231   0 1  0    0.0    0.0    0.0    0.0   1 1.000   0 1.000   0 1.000   0 1.000   0 0.000   0 0.000   0 0.000   0 0.000  0
     24 "P-26    " 380.00      23 "P-24    " 380.00 "1 "  1 "        " :  1 0.00000 0.05243 0.00000    0.0    0.0    0.0    0.0 1.000    1.0 /
  1 201 0.0000 0.000 1.000   400101   391231   0 1  0    0.0    0.0    0.0    0.0   1 1.000   0 1.000   0 1.000   0 1.000   0 0.000   0 0.000   0 0.000   0 0.000  0
     24 "P-26    " 380.00      23 "P-24    " 380.00 "2 "  1 "        " :  1 0.00000 0.04553 0.00000    0.0    0.0    0.0    0.0 1.000    1.0 /
  1 201 0.0000 0.000 1.000   400101   391231   0 1  0    0.0    0.0    0.0    0.0   1 1.000   0 1.000   0 1.000   0 1.000   0 0.000   0 0.000   0 0.000   0 0.000  0
     27 "E-3     " 380.00      25 "E-1     " 380.00 "1 "  1 "        " :  1 0.00000 0.02092 0.00000    0.0    0.0    0.0    0.0 1.000    1.0 /
  2 217 0.0000 0.000 1.000   400101   391231   0 1  0    0.0    0.0    0.0    0.0   1 1.000   0 1.000   0 1.000   0 1.000   0 0.000   0 0.000   0 0.000   0 0.000  0
     27 "E-3     " 380.00      25 "E-1     " 380.00 "2 "  1 "        " :  1 0.00000 0.01888 0.00000    0.0    0.0    0.0    0.0 1.000    1.0 /
  2 217 0.0000 0.000 1.000   400101   391231   0 1  0    0.0    0.0    0.0    0.0   1 1.000   0 1.000   0 1.000   0 1.000   0 0.000   0 0.000   0 0.000   0 0.000  0
     26 "E-2     " 380.00      28 "E-4     " 380.00 "1 "  1 "        " :  1 0.00000 0.01544 0.00000    0.0    0.0    0.0    0.0 1.000    1.0 /
  2 203 0.0000 0.000 1.000   400101   391231   0 1  0    0.0    0.0    0.0    0.0   1 1.000   0 1.000   0 1.000   0 1.000   0 0.000   0 0.000   0 0.000   0 0.000  0
     31 "E-7     " 380.00      26 "E-2     " 380.00 "1 "  1 "        " :  1 0.00000 0.04173 0.00000    0.0    0.0    0.0    0.0 1.000    1.0 /
  2 217 0.0000 0.000 1.000   400101   391231   0 1  0    0.0    0.0    0.0    0.0   1 1.000   0 1.000   0 1.000   0 1.000   0 0.000   0 0.000   0 0.000   0 0.000  0
     29 "E-5     " 380.00      27 "E-3     " 380.00 "1 "  1 "        " :  1 0.00000 0.02338 0.00000    0.0    0.0    0.0    0.0 1.000    1.0 /
  2 217 0.0000 0.000 1.000   400101   391231   0 1  0    0.0    0.0    0.0    0.0   1 1.000   0 1.000   0 1.000   0 1.000   0 0.000   0 0.000   0 0.000   0 0.000  0
     69 "E-45    " 380.00      27 "E-3     " 380.00 "1 "  1 "        " :  1 0.00000 0.03580 0.00000    0.0    0.0    0.0    0.0 1.000    1.0 /
  2 213 0.0000 0.000 1.000   400101   391231   0 1  0    0.0    0.0    0.0    0.0   1 1.000   0 1.000   0 1.000   0 1.000   0 0.000   0 0.000   0 0.000   0 0.000  0
     28 "E-4     " 380.00      31 "E-7     " 380.00 "1 "  1 "        " :  1 0.00000 0.03084 0.00000    0.0    0.0    0.0    0.0 1.000    1.0 /
  2 217 0.0000 0.000 1.000   400101   391231   0 1  0    0.0    0.0    0.0    0.0   1 1.000   0 1.000   0 1.000   0 1.000   0 0.000   0 0.000   0 0.000   0 0.000  0
     29 "E-5     " 380.00      34 "E-10    " 380.00 "1 "  1 "        " :  1 0.00000 0.05167 0.00000    0.0    0.0    0.0    0.0 1.000    1.0 /
  2 217 0.0000 0.000 1.000   400101   391231   0 1  0    0.0    0.0    0.0    0.0   1 1.000   0 1.000   0 1.000   0 1.000   0 0.000   0 0.000   0 0.000   0 0.000  0
     29 "E-5     " 380.00      36 "E-12    " 380.00 "1 "  1 "        " :  1 0.00000 0.09907 0.00000    0.0    0.0    0.0    0.0 1.000    1.0 /
  2 217 0.0000 0.000 1.000   400101   391231   0 1  0    0.0    0.0    0.0    0.0   1 1.000   0 1.000   0 1.000   0 1.000   0 0.000   0 0.000   0 0.000   0 0.000  0
     29 "E-5     " 380.00      40 "E-16    " 380.00 "1 "  1 "        " :  1 0.00000 0.05288 0.00000    0.0    0.0    0.0    0.0 1.000    1.0 /
  2 217 0.0000 0.000 1.000   400101   391231   0 1  0    0.0    0.0    0.0    0.0   1 1.000   0 1.000   0 1.000   0 1.000   0 0.000   0 0.000   0 0.000   0 0.000  0
     29 "E-5     " 380.00      46 "E-22    " 380.00 "1 "  1 "        " :  1 0.00000 0.05976 0.00000    0.0    0.0    0.0    0.0 1.000    1.0 /
  2 217 0.0000 0.000 1.000   400101   391231   0 1  0    0.0    0.0    0.0    0.0   1 1.000   0 1.000   0 1.000   0 1.000   0 0.000   0 0.000   0 0.000   0 0.000  0
     29 "E-5     " 380.00      61 "E-37    " 380.00 "1 "  1 "        " :  1 0.00000 0.11974 0.00000    0.0    0.0    0.0    0.0 1.000    1.0 /
  2 217 0.0000 0.000 1.000   400101   391231   0 1  0    0.0    0.0    0.0    0.0   1 1.000   0 1.000   0 1.000   0 1.000   0 0.000   0 0.000   0 0.000   0 0.000  0
     29 "E-5     " 380.00      79 "E-55    " 380.00 "1 "  1 "        " :  1 0.00000 0.12431 0.00000    0.0    0.0    0.0    0.0 1.000    1.0 /
  2 217 0.0000 0.000 1.000   400101   391231   0 1  0    0.0    0.0    0.0    0.0   1 1.000   0 1.000   0 1.000   0 1.000   0 0.000   0 0.000   0 0.000   0 0.000  0
     31 "E-7     " 380.00      30 "E-6     " 380.00 "1 "  1 "        " :  1 0.00000 0.02725 0.00000    0.0    0.0    0.0    0.0 1.000    1.0 /
  2 217 0.0000 0.000 1.000   400101   391231   0 1  0    0.0    0.0    0.0    0.0   1 1.000   0 1.000   0 1.000   0 1.000   0 0.000   0 0.000   0 0.000   0 0.000  0
     35 "E-11    " 380.00      30 "E-6     " 380.00 "1 "  1 "        " :  1 0.00000 0.18509 0.00000    0.0    0.0    0.0    0.0 1.000    1.0 /
  2 204 0.0000 0.000 1.000   400101   391231   0 1  0    0.0    0.0    0.0    0.0   1 1.000   0 1.000   0 1.000   0 1.000   0 0.000   0 0.000   0 0.000   0 0.000  0
     35 "E-11    " 380.00      30 "E-6     " 380.00 "2 "  1 "        " :  1 0.00000 0.18427 0.00000    0.0    0.0    0.0    0.0 1.000    1.0 /
  2 204 0.0000 0.000 1.000   400101   391231   0 1  0    0.0    0.0    0.0    0.0   1 1.000   0 1.000   0 1.000   0 1.000   0 0.000   0 0.000   0 0.000   0 0.000  0
     31 "E-7     " 380.00      32 "E-8     " 380.00 "1 "  1 "        " :  1 0.00000 0.01114 0.00000    0.0    0.0    0.0    0.0 1.000    1.0 /
  2 217 0.0000 0.000 1.000   400101   391231   0 1  0    0.0    0.0    0.0    0.0   1 1.000   0 1.000   0 1.000   0 1.000   0 0.000   0 0.000   0 0.000   0 0.000  0
     33 "E-9     " 380.00      31 "E-7     " 380.00 "1 "  1 "        " :  1 0.00000 0.01922 0.00000    0.0    0.0    0.0    0.0 1.000    1.0 /
  2 217 0.0000 0.000 1.000   400101   391231   0 1  0    0.0    0.0    0.0    0.0   1 1.000   0 1.000   0 1.000   0 1.000   0 0.000   0 0.000   0 0.000   0 0.000  0
     31 "E-7     " 380.00      47 "E-23    " 380.00 "1 "  1 "        " :  1 0.00000 0.13426 0.00000    0.0    0.0    0.0    0.0 1.000    1.0 /
  2 217 0.0000 0.000 1.000   400101   391231   0 1  0    0.0    0.0    0.0    0.0   1 1.000   0 1.000   0 1.000   0 1.000   0 0.000   0 0.000   0 0.000   0 0.000  0
     31 "E-7     " 380.00      51 "E-27    " 380.00 "1 "  1 "        " :  1 0.00000 0.02187 0.00000    0.0    0.0    0.0    0.0 1.000    1.0 /
  2 217 0.0000 0.000 1.000   400101   391231   0 1  0    0.0    0.0    0.0    0.0   1 1.000   0 1.000   0 1.000   0 1.000   0 0.000   0 0.000   0 0.000   0 0.000  0
     32 "E-8     " 380.00      51 "E-27    " 380.00 "1 "  1 "        " :  1 0.00000 0.03249 0.00000    0.0    0.0    0.0    0.0 1.000    1.0 /
  2 217 0.0000 0.000 1.000   400101   391231   0 1  0    0.0    0.0    0.0    0.0   1 1.000   0 1.000   0 1.000   0 1.000   0 0.000   0 0.000   0 0.000   0 0.000  0
     38 "E-14    " 380.00      35 "E-11    " 380.00 "1 "  1 "        " :  1 0.00000 0.03555 0.00000    0.0    0.0    0.0    0.0 1.000    1.0 /
  2 204 0.0000 0.000 1.000   400101   391231   0 1  0    0.0    0.0    0.0    0.0   1 1.000   0 1.000   0 1.000   0 1.000   0 0.000   0 0.000   0 0.000   0 0.000  0
     42 "E-18    " 380.00      35 "E-11    " 380.00 "1 "  1 "        " :  1 0.00000 0.02622 0.00000    0.0    0.0    0.0    0.0 1.000    1.0 /
  2 217 0.0000 0.000 1.000   400101   391231   0 1  0    0.0    0.0    0.0    0.0   1 1.000   0 1.000   0 1.000   0 1.000   0 0.000   0 0.000   0 0.000   0 0.000  0
     43 "E-19    " 380.00      37 "E-13    " 380.00 "1 "  1 "        " :  1 0.00000 0.01839 0.00000    0.0    0.0    0.0    0.0 1.000    1.0 /
  2 205 0.0000 0.000 1.000   400101   391231   0 1  0    0.0    0.0    0.0    0.0   1 1.000   0 1.000   0 1.000   0 1.000   0 0.000   0 0.000   0 0.000   0 0.000  0
     37 "E-13    " 380.00      45 "E-21    " 380.00 "1 "  1 "        " :  1 0.00000 0.03107 0.00000    0.0    0.0    0.0    0.0 1.000    1.0 /
  2 205 0.0000 0.000 1.000   400101   391231   0 1  0    0.0    0.0    0.0    0.0   1 1.000   0 1.000   0 1.000   0 1.000   0 0.000   0 0.000   0 0.000   0 0.000  0
     37 "E-13    " 380.00      45 "E-21    " 380.00 "2 "  1 "        " :  1 0.00000 0.03587 0.00000    0.0    0.0    0.0    0.0 1.000    1.0 /
  2 205 0.0000 0.000 1.000   400101   391231   0 1  0    0.0    0.0    0.0    0.0   1 1.000   0 1.000   0 1.000   0 1.000   0 0.000   0 0.000   0 0.000   0 0.000  0
     37 "E-13    " 380.00      49 "E-25    " 380.00 "1 "  1 "        " :  1 0.00000 0.02353 0.00000    0.0    0.0    0.0    0.0 1.000    1.0 /
  2 205 0.0000 0.000 1.000   400101   391231   0 1  0    0.0    0.0    0.0    0.0   1 1.000   0 1.000   0 1.000   0 1.000   0 0.000   0 0.000   0 0.000   0 0.000  0
     42 "E-18    " 380.00      38 "E-14    " 380.00 "1 "  1 "        " :  1 0.00000 0.02651 0.00000    0.0    0.0    0.0    0.0 1.000    1.0 /
  2 217 0.0000 0.000 1.000   400101   391231   0 1  0    0.0    0.0    0.0    0.0   1 1.000   0 1.000   0 1.000   0 1.000   0 0.000   0 0.000   0 0.000   0 0.000  0
     38 "E-14    " 380.00      64 "E-40    " 380.00 "1 "  1 "        " :  1 0.00000 0.10463 0.00000    0.0    0.0    0.0    0.0 1.000    1.0 /
  2 204 0.0000 0.000 1.000   400101   391231   0 1  0    0.0    0.0    0.0    0.0   1 1.000   0 1.000   0 1.000   0 1.000   0 0.000   0 0.000   0 0.000   0 0.000  0
     43 "E-19    " 380.00      39 "E-E_Arka" 380.00 "1 "  1 "        " :  1 0.00000 0.02113 0.00000    0.0    0.0    0.0    0.0 1.000    1.0 /
  2 205 0.0000 0.000 1.000   400101   391231   0 1  0    0.0    0.0    0.0    0.0   1 1.000   0 1.000   0 1.000   0 1.000   0 0.000   0 0.000   0 0.000   0 0.000  0
     49 "E-25    " 380.00      39 "E-E_Arka" 380.00 "1 "  1 "        " :  1 0.00000 0.03257 0.00000    0.0    0.0    0.0    0.0 1.000    1.0 /
  2 205 0.0000 0.000 1.000   400101   391231   0 1  0    0.0    0.0    0.0    0.0   1 1.000   0 1.000   0 1.000   0 1.000   0 0.000   0 0.000   0 0.000   0 0.000  0
     49 "E-25    " 380.00      39 "E-E_Arka" 380.00 "2 "  1 "        " :  1 0.00000 0.02090 0.00000    0.0    0.0    0.0    0.0 1.000    1.0 /
  2 205 0.0000 0.000 1.000   400101   391231   0 1  0    0.0    0.0    0.0    0.0   1 1.000   0 1.000   0 1.000   0 1.000   0 0.000   0 0.000   0 0.000   0 0.000  0
     39 "E-E_Arka" 380.00     495 "F_canteg" 380.00 "1 "  1 "        " :  1 0.00000 0.07118 0.00000 1270.0    0.0    0.0    0.0 1.000    1.0 /
  2 217 0.0000 0.000 1.000   400101   391231   0 1  0    0.0    0.0    0.0    0.0   1 1.000   0 1.000   0 1.000   0 1.000   0 0.000   0 0.000   0 0.000   0 0.000  0
     39 "E-E_Arka" 380.00     515 "F_Mougue" 380.00 "1 "  1 "        " :  1 0.00000 0.08438 0.00000  420.0    0.0    0.0    0.0 1.000    1.0 /
  2 217 0.0000 0.000 1.000   400101   391231   0 1  0    0.0    0.0    0.0    0.0   1 1.000   0 1.000   0 1.000   0 1.000   0 0.000   0 0.000   0 0.000   0 0.000  0
     44 "E-20    " 380.00      40 "E-16    " 380.00 "1 "  1 "        " :  1 0.00000 0.04046 0.00000    0.0    0.0    0.0    0.0 1.000    1.0 /
  2 202 0.0000 0.000 1.000   400101   391231   0 1  0    0.0    0.0    0.0    0.0   1 1.000   0 1.000   0 1.000   0 1.000   0 0.000   0 0.000   0 0.000   0 0.000  0
     45 "E-21    " 380.00      41 "E-17    " 380.00 "1 "  1 "        " :  1 0.00000 0.02078 0.00000    0.0    0.0    0.0    0.0 1.000    1.0 /
  2 213 0.0000 0.000 1.000   400101   391231   0 1  0    0.0    0.0    0.0    0.0   1 1.000   0 1.000   0 1.000   0 1.000   0 0.000   0 0.000   0 0.000   0 0.000  0
     41 "E-17    " 380.00      48 "E-24    " 380.00 "1 "  1 "        " :  1 0.00000 0.04416 0.00000    0.0    0.0    0.0    0.0 1.000    1.0 /
  2 205 0.0000 0.000 1.000   400101   391231   0 1  0    0.0    0.0    0.0    0.0   1 1.000   0 1.000   0 1.000   0 1.000   0 0.000   0 0.000   0 0.000   0 0.000  0
     54 "E-30    " 380.00      42 "E-18    " 380.00 "1 "  1 "        " :  1 0.00000 0.03793 0.00000    0.0    0.0    0.0    0.0 1.000    1.0 /
  2 217 0.0000 0.000 1.000   400101   391231   0 1  0    0.0    0.0    0.0    0.0   1 1.000   0 1.000   0 1.000   0 1.000   0 0.000   0 0.000   0 0.000   0 0.000  0
     57 "E-33    " 380.00      42 "E-18    " 380.00 "1 "  1 "        " :  1 0.00000 0.04225 0.00000    0.0    0.0    0.0    0.0 1.000    1.0 /
  2 204 0.0000 0.000 1.000   400101   391231   0 1  0    0.0    0.0    0.0    0.0   1 1.000   0 1.000   0 1.000   0 1.000   0 0.000   0 0.000   0 0.000   0 0.000  0
     45 "E-21    " 380.00      60 "E-36    " 380.00 "1 "  1 "        " :  1 0.00000 0.07579 0.00000    0.0    0.0    0.0    0.0 1.000    1.0 /
  2 213 0.0000 0.000 1.000   400101   391231   0 1  0    0.0    0.0    0.0    0.0   1 1.000   0 1.000   0 1.000   0 1.000   0 0.000   0 0.000   0 0.000   0 0.000  0
     45 "E-21    " 380.00      64 "E-40    " 380.00 "1 "  1 "        " :  1 0.00000 0.01624 0.00000    0.0    0.0    0.0    0.0 1.000    1.0 /
  2 213 0.0000 0.000 1.000   400101   391231   0 1  0    0.0    0.0    0.0    0.0   1 1.000   0 1.000   0 1.000   0 1.000   0 0.000   0 0.000   0 0.000   0 0.000  0
     70 "E-46    " 380.00      45 "E-21    " 380.00 "1 "  1 "        " :  1 0.00000 0.05550 0.00000    0.0    0.0    0.0    0.0 1.000    1.0 /
  2 213 0.0000 0.000 1.000   400101   391231   0 1  0    0.0    0.0    0.0    0.0   1 1.000   0 1.000   0 1.000   0 1.000   0 0.000   0 0.000   0 0.000   0 0.000  0
     45 "E-21    " 380.00      88 "E-64    " 380.00 "1 "  1 "        " :  1 0.00000 0.12840 0.00000    0.0    0.0    0.0    0.0 1.000    1.0 /
  2 213 0.0000 0.000 1.000   400101   391231   0 1  0    0.0    0.0    0.0    0.0   1 1.000   0 1.000   0 1.000   0 1.000   0 0.000   0 0.000   0 0.000   0 0.000  0
     55 "E-31    " 380.00      46 "E-22    " 380.00 "1 "  1 "        " :  1 0.00000 0.06678 0.00000    0.0    0.0    0.0    0.0 1.000    1.0 /
  2 202 0.0000 0.000 1.000   400101   391231   0 1  0    0.0    0.0    0.0    0.0   1 1.000   0 1.000   0 1.000   0 1.000   0 0.000   0 0.000   0 0.000   0 0.000  0
     47 "E-23    " 380.00      63 "E-39    " 380.00 "1 "  1 "        " :  1 0.00000 0.05378 0.00000    0.0    0.0    0.0    0.0 1.000    1.0 /
  2 213 0.0000 0.000 1.000   400101   391231   0 1  0    0.0    0.0    0.0    0.0   1 1.000   0 1.000   0 1.000   0 1.000   0 0.000   0 0.000   0 0.000   0 0.000  0
     48 "E-24    " 380.00      49 "E-25    " 380.00 "1 "  1 "        " :  1 0.00000 0.03258 0.00000    0.0    0.0    0.0    0.0 1.000    1.0 /
  2 205 0.0000 0.000 1.000   400101   391231   0 1  0    0.0    0.0    0.0    0.0   1 1.000   0 1.000   0 1.000   0 1.000   0 0.000   0 0.000   0 0.000   0 0.000  0
     48 "E-24    " 380.00      59 "E-35    " 380.00 "1 "  1 "        " :  1 0.00000 0.03903 0.00000    0.0    0.0    0.0    0.0 1.000    1.0 /
  2 205 0.0000 0.000 1.000   400101   391231   0 1  0    0.0    0.0    0.0    0.0   1 1.000   0 1.000   0 1.000   0 1.000   0 0.000   0 0.000   0 0.000   0 0.000  0
     58 "E-34    " 380.00      49 "E-25    " 380.00 "1 "  1 "        " :  1 0.00000 0.04732 0.00000    0.0    0.0    0.0    0.0 1.000    1.0 /
  2 205 0.0000 0.000 1.000   400101   391231   0 1  0    0.0    0.0    0.0    0.0   1 1.000   0 1.000   0 1.000   0 1.000   0 0.000   0 0.000   0 0.000   0 0.000  0
     59 "E-35    " 380.00      49 "E-25    " 380.00 "1 "  1 "        " :  1 0.00000 0.01855 0.00000    0.0    0.0    0.0    0.0 1.000    1.0 /
  2 205 0.0000 0.000 1.000   400101   391231   0 1  0    0.0    0.0    0.0    0.0   1 1.000   0 1.000   0 1.000   0 1.000   0 0.000   0 0.000   0 0.000   0 0.000  0
     64 "E-40    " 380.00      49 "E-25    " 380.00 "1 "  1 "        " :  1 0.00000 0.04336 0.00000    0.0    0.0    0.0    0.0 1.000    1.0 /
  2 217 0.0000 0.000 1.000   400101   391231   0 1  0    0.0    0.0    0.0    0.0   1 1.000   0 1.000   0 1.000   0 1.000   0 0.000   0 0.000   0 0.000   0 0.000  0
     49 "E-25    " 380.00      65 "E-41    " 380.00 "1 "  1 "        " :  1 0.00000 0.11351 0.00000    0.0    0.0    0.0    0.0 1.000    1.0 /
  2 205 0.0000 0.000 1.000   400101   391231   0 1  0    0.0    0.0    0.0    0.0   1 1.000   0 1.000   0 1.000   0 1.000   0 0.000   0 0.000   0 0.000   0 0.000  0
     49 "E-25    " 380.00      65 "E-41    " 380.00 "2 "  1 "        " :  1 0.00000 0.10830 0.00000    0.0    0.0    0.0    0.0 1.000    1.0 /
  2 205 0.0000 0.000 1.000   400101   391231   0 1  0    0.0    0.0    0.0    0.0   1 1.000   0 1.000   0 1.000   0 1.000   0 0.000   0 0.000   0 0.000   0 0.000  0
...
transformer data  [   0]                               ck   long_id_    st ty --no---    reg_name          zt         int                           tert               ar zone  tbase   ps_r    ps_x    pt_r    pt_x    ts_r    ts_x
generator data  [ 378]     id   long_id_    st ---no--     reg_name       prf  qrf  ar zone   pgen   pmax   pmin   qgen   qmax   qmin   mbase cmp_r cmp_x gen_r gen_x           hbus                    tbus           date_in date_out pid N
   1000 "A-5     " 380.00 "1 " "        " :  1    1000 "A-5     " 380.00  0.00 1.00  10  354  261.40  625.2    0.0    0.0 3000.0 -3000.0 100.0000 0.000 0.000 0.000 1.000      -1 "        "   0.00      -1 "        "   0.00    400101   391231   0 0 /
 0.0000 0.0000 1.0000   1 1.000   0 0.000   0 0.000   0 0.000    0 0.000    0 0.000    0 0.000    0 0.000 
   1001 "A-6     " 380.00 "1 " "        " :  1    1001 "A-6     " 380.00  0.00 1.00  10  354  357.86  855.9    0.0    0.0 3000.0 -3000.0 100.0000 0.000 0.000 0.000 1.000      -1 "        "   0.00      -1 "        "   0.00    400101   391231   0 0 /
 0.0000 0.0000 1.0000   1 1.000   0 0.000   0 0.000   0 0.000    0 0.000    0 0.000    0 0.000    0 0.000 
   1002 "A-7     " 380.00 "1 " "        " :  1    1002 "A-7     " 380.00  0.00 1.00  10  353  294.38  704.1    0.0    0.0 3000.0 -3000.0 100.0000 0.000 0.000 0.000 1.000      -1 "        "   0.00      -1 "        "   0.00    400101   391231   0 0 /
 0.0000 0.0000 1.0000   1 1.000   0 0.000   0 0.000   0 0.000    0 0.000    0 0.000    0 0.000    0 0.000 
   1004 "A_st.Pet" 380.00 "1 " "        " :  1    1004 "A_st.Pet" 380.00  0.00 1.00  10  354   90.74  217.0    0.0    0.0 3000.0 -3000.0 100.0000 0.000 0.000 0.000 1.000      -1 "        "   0.00      -1 "        "   0.00    400101   391231   0 0 /
 0.0000 0.0000 1.0000   1 1.000   0 0.000   0 0.000   0 0.000    0 0.000    0 0.000    0 0.000    0 0.000 
    101 "E_Vic   " 380.00 "1 " "        " :  1     101 "E_Vic   " 380.00  0.00 1.00   2  217  296.15  495.5    0.0    0.0 3000.0 -3000.0 100.0000 0.000 0.000 0.000 1.000      -1 "        "   0.00      -1 "        "   0.00    400101   391231   0 0 /
 0.0000 0.0000 1.0000   1 1.000   0 0.000   0 0.000   0 0.000    0 0.000    0 0.000    0 0.000    0 0.000 
   1012 "A-17    " 380.00 "1 " "        " :  1    1012 "A-17    " 380.00  0.00 1.00  10  355  170.52  236.6    0.0    0.0 3000.0 -3000.0 100.0000 0.000 0.000 0.000 1.000      -1 "        "   0.00      -1 "        "   0.00    400101   391231   0 0 /
 0.0000 0.0000 1.0000   1 1.000   0 0.000   0 0.000   0 0.000    0 0.000    0 0.000    0 0.000    0 0.000 
   1013 "A-18    " 380.00 "1 " "        " :  1    1013 "A-18    " 380.00  0.00 1.00  10  352  414.24  990.7    0.0    0.0 3000.0 -3000.0 100.0000 0.000 0.000 0.000 1.000      -1 "        "   0.00      -1 "        "   0.00    400101   391231   0 0 /
 0.0000 0.0000 1.0000   1 1.000   0 0.000   0 0.000   0 0.000    0 0.000    0 0.000    0 0.000    0 0.000 
   1014 "A-19    " 380.00 "1 " "        " :  1    1014 "A-19    " 380.00  0.00 1.00  10  356  288.81  690.7    0.0    0.0 3000.0 -3000.0 100.0000 0.000 0.000 0.000 1.000      -1 "        "   0.00      -1 "        "   0.00    400101   391231   0 0 /
 0.0000 0.0000 1.0000   1 1.000   0 0.000   0 0.000   0 0.000    0 0.000    0 0.000    0 0.000    0 0.000 
   1015 "A-20    " 380.00 "1 " "        " :  1    1015 "A-20    " 380.00  0.00 1.00  10  356   80.91  193.5    0.0    0.0 3000.0 -3000.0 100.0000 0.000 0.000 0.000 1.000      -1 "        "   0.00      -1 "        "   0.00    400101   391231   0 0 /
 0.0000 0.0000 1.0000   1 1.000   0 0.000   0 0.000   0 0.000    0 0.000    0 0.000    0 0.000    0 0.000 
   1017 "A-22    " 380.00 "1 " "        " :  1    1017 "A-22    " 380.00  0.00 1.00  10  355  575.03  797.8    0.0    0.0 3000.0 -3000.0 100.0000 0.000 0.000 0.000 1.000      -1 "        "   0.00      -1 "        "   0.00    400101   391231   0 0 /
 0.0000 0.0000 1.0000   1 1.000   0 0.000   0 0.000   0 0.000    0 0.000    0 0.000    0 0.000    0 0.000 
   1019 "A-24    " 380.00 "1 " "        " :  1    1019 "A-24    " 380.00  0.00 1.00  10  356 1165.08 2786.5    0.0    0.0 3000.0 -3000.0 100.0000 0.000 0.000 0.000 1.000      -1 "        "   0.00      -1 "        "   0.00    400101   391231   0 0 /
 0.0000 0.0000 1.0000   1 1.000   0 0.000   0 0.000   0 0.000    0 0.000    0 0.000    0 0.000    0 0.000 
   1021 "A-26    " 380.00 "1 " "        " :  1    1021 "A-26    " 380.00  0.00 1.00  10  352  112.90  270.0    0.0    0.0 3000.0 -3000.0 100.0000 0.000 0.000 0.000 1.000      -1 "        "   0.00      -1 "        "   0.00    400101   391231   0 0 /
 0.0000 0.0000 1.0000   1 1.000   0 0.000   0 0.000   0 0.000    0 0.000    0 0.000    0 0.000    0 0.000 
   1022 "A-27    " 380.00 "1 " "        " :  1    1022 "A-27    " 380.00  0.00 1.00  10  352  154.35  214.2    0.0    0.0 3000.0 -3000.0 100.0000 0.000 0.000 0.000 1.000      -1 "        "   0.00      -1 "        "   0.00    400101   391231   0 0 /
 0.0000 0.0000 1.0000   1 1.000   0 0.000   0 0.000   0 0.000    0 0.000    0 0.000    0 0.000    0 0.000 
   1023 "A_Burs  " 380.00 "1 " "        " :  1    1023 "A_Burs  " 380.00  0.00 1.00  10  357   63.47  151.8    0.0    0.0 3000.0 -3000.0 100.0000 0.000 0.000 0.000 1.000      -1 "        "   0.00      -1 "        "   0.00    400101   391231   0 0 /
 0.0000 0.0000 1.0000   1 1.000   0 0.000   0 0.000   0 0.000    0 0.000    0 0.000    0 0.000    0 0.000 
   1024 "A-29    " 380.00 "1 " "        " :  1    1024 "A-29    " 380.00  0.00 1.00  10  356  219.75  525.6    0.0    0.0 3000.0 -3000.0 100.0000 0.000 0.000 0.000 1.000      -1 "        "   0.00      -1 "        "   0.00    400101   391231   0 0 /
 0.0000 0.0000 1.0000   1 1.000   0 0.000   0 0.000   0 0.000    0 0.000    0 0.000    0 0.000    0 0.000 
   1025 "A-30    " 380.00 "1 " "        " :  1    1025 "A-30    " 380.00  0.00 1.00  10  356   74.67  178.6    0.0    0.0 3000.0 -3000.0 100.0000 0.000 0.000 0.000 1.000      -1 "        "   0.00      -1 "        "   0.00    400101   391231   0 0 /
 0.0000 0.0000 1.0000   1 1.000   0 0.000   0 0.000   0 0.000    0 0.000    0 0.000    0 0.000    0 0.000 
...